/tab1/aaamir2/Christian_Openmm_project/AMOEBA/test1_just_protein/lipid_ff/popc_single.pdb
 OpenBabel06142608373D

134133  0  0  1  0  0  0  0  0999 V2000
   14.0020   16.0680   64.2370 N   0  3  0  0  0  0  0  0  0  0  0  0
   15.4130   15.9300   63.6930 C   0  0  0  0  0  0  0  0  0  0  0  0
   15.6740   14.8790   63.7070 H   0  0  0  0  0  0  0  0  0  0  0  0
   16.1250   16.4270   64.3430 H   0  0  0  0  0  0  0  0  0  0  0  0
   13.1130   15.0850   63.5510 C   0  0  0  0  0  0  0  0  0  0  0  0
   13.0650   15.3920   62.4990 H   0  0  0  0  0  0  0  0  0  0  0  0
   13.5490   14.1010   63.5930 H   0  0  0  0  0  0  0  0  0  0  0  0
   12.1080   15.0910   63.9570 H   0  0  0  0  0  0  0  0  0  0  0  0
   13.9360   15.8170   65.7020 C   0  0  0  0  0  0  0  0  0  0  0  0
   14.5910   16.4870   66.2390 H   0  0  0  0  0  0  0  0  0  0  0  0
   12.9270   15.9850   66.0760 H   0  0  0  0  0  0  0  0  0  0  0  0
   14.2090   14.7910   65.9200 H   0  0  0  0  0  0  0  0  0  0  0  0
   13.4270   17.4050   63.9050 C   0  0  0  0  0  0  0  0  0  0  0  0
   14.0290   18.2100   64.3010 H   0  0  0  0  0  0  0  0  0  0  0  0
   12.4200   17.4830   64.2880 H   0  0  0  0  0  0  0  0  0  0  0  0
   13.3560   17.5030   62.8120 H   0  0  0  0  0  0  0  0  0  0  0  0
   15.6590   16.4170   62.2460 C   0  0  0  0  0  0  0  0  0  0  0  0
   16.7050   16.1570   61.9600 H   0  0  0  0  0  0  0  0  0  0  0  0
   15.5840   17.5330   62.2200 H   0  0  0  0  0  0  0  0  0  0  0  0
   14.0350   16.6320   60.2120 P   0  0  2  0  0  0  0  0  0  0  0  0
   15.0410   17.5100   59.5900 O   0  0  0  0  0  0  0  0  0  0  0  0
   12.9010   17.2990   60.8810 O   0  0  0  0  0  1  0  0  0  0  0  0
   14.7530   15.7770   61.3470 O   0  0  0  0  0  0  0  0  0  0  0  0
   13.5390   15.4920   59.2320 O   0  0  0  0  0  0  0  0  0  0  0  0
   13.0680   14.2600   59.7960 C   0  0  0  0  0  0  0  0  0  0  0  0
   12.3170   14.4390   60.6020 H   0  0  0  0  0  0  0  0  0  0  0  0
   13.9120   13.6890   60.2470 H   0  0  0  0  0  0  0  0  0  0  0  0
   12.3710   13.3760   58.7190 C   0  0  2  0  0  0  0  0  0  0  0  0
   12.1340   12.3990   59.1950 H   0  0  0  0  0  0  0  0  0  0  0  0
   13.1240   13.1180   57.5240 O   0  0  0  0  0  0  0  0  0  0  0  0
   14.4290   13.2440   57.4310 C   0  0  0  0  0  0  0  0  0  0  0  0
   15.2390   13.3570   58.3310 O   0  0  0  0  0  0  0  0  0  0  0  0
   14.8100   13.0360   55.9650 C   0  0  0  0  0  0  0  0  0  0  0  0
   14.1940   13.7060   55.3330 H   0  0  0  0  0  0  0  0  0  0  0  0
   14.5710   11.9850   55.7040 H   0  0  0  0  0  0  0  0  0  0  0  0
   11.0140   14.0120   58.2850 C   0  0  0  0  0  0  0  0  0  0  0  0
   10.3570   14.0530   59.1800 H   0  0  0  0  0  0  0  0  0  0  0  0
   10.5130   13.3570   57.5360 H   0  0  0  0  0  0  0  0  0  0  0  0
   11.1920   15.3620   57.8080 O   0  0  0  0  0  0  0  0  0  0  0  0
   11.6110   15.4760   56.5560 C   0  0  0  0  0  0  0  0  0  0  0  0
   11.5200   14.6080   55.7010 O   0  0  0  0  0  0  0  0  0  0  0  0
   12.1910   16.8620   56.2890 C   0  0  0  0  0  0  0  0  0  0  0  0
   12.2210   17.4410   57.2330 H   0  0  0  0  0  0  0  0  0  0  0  0
   11.5040   17.3700   55.5850 H   0  0  0  0  0  0  0  0  0  0  0  0
   16.3100   13.2970   55.7330 C   0  0  0  0  0  0  0  0  0  0  0  0
   16.9090   12.6690   56.4290 H   0  0  0  0  0  0  0  0  0  0  0  0
   16.5280   14.3610   55.9870 H   0  0  0  0  0  0  0  0  0  0  0  0
   16.7610   13.0330   54.2930 C   0  0  0  0  0  0  0  0  0  0  0  0
   17.5940   13.7330   54.0490 H   0  0  0  0  0  0  0  0  0  0  0  0
   15.9250   13.2550   53.6000 H   0  0  0  0  0  0  0  0  0  0  0  0
   17.2720   11.6090   54.0590 C   0  0  0  0  0  0  0  0  0  0  0  0
   16.4770   10.8660   54.2020 H   0  0  0  0  0  0  0  0  0  0  0  0
   18.0280   11.3680   54.8330 H   0  0  0  0  0  0  0  0  0  0  0  0
   17.9090   11.4550   52.6790 C   0  0  0  0  0  0  0  0  0  0  0  0
   18.5880   10.5710   52.6840 H   0  0  0  0  0  0  0  0  0  0  0  0
   18.5150   12.3580   52.4530 H   0  0  0  0  0  0  0  0  0  0  0  0
   16.9230   11.3000   51.5300 C   0  0  0  0  0  0  0  0  0  0  0  0
   16.1050   12.0480   51.6030 H   0  0  0  0  0  0  0  0  0  0  0  0
   16.4770   10.2870   51.6170 H   0  0  0  0  0  0  0  0  0  0  0  0
   17.6600   11.4930   50.2050 C   0  0  0  0  0  0  0  0  0  0  0  0
   18.6910   11.0960   50.3440 H   0  0  0  0  0  0  0  0  0  0  0  0
   17.7540   12.5840   50.0080 H   0  0  0  0  0  0  0  0  0  0  0  0
   16.9670   10.7990   49.0720 C   0  0  0  0  0  0  0  0  0  0  0  0
   15.8980   10.6030   49.2240 H   0  0  0  0  0  0  0  0  0  0  0  0
   17.5680   10.3820   47.9490 C   0  0  0  0  0  0  0  0  0  0  0  0
   16.9600    9.9260   47.1530 H   0  0  0  0  0  0  0  0  0  0  0  0
   19.0350   10.5460   47.6440 C   0  0  0  0  0  0  0  0  0  0  0  0
   19.4670    9.5760   47.3130 H   0  0  0  0  0  0  0  0  0  0  0  0
   19.6300   10.8760   48.5240 H   0  0  0  0  0  0  0  0  0  0  0  0
   19.2180   11.5940   46.5420 C   0  0  0  0  0  0  0  0  0  0  0  0
   18.7800   11.1860   45.6050 H   0  0  0  0  0  0  0  0  0  0  0  0
   20.3040   11.7340   46.3420 H   0  0  0  0  0  0  0  0  0  0  0  0
   18.6000   12.9640   46.8830 C   0  0  0  0  0  0  0  0  0  0  0  0
   19.3190   13.5270   47.5160 H   0  0  0  0  0  0  0  0  0  0  0  0
   17.6580   12.8770   47.4640 H   0  0  0  0  0  0  0  0  0  0  0  0
   18.2480   13.7650   45.6370 C   0  0  0  0  0  0  0  0  0  0  0  0
   19.1560   13.7980   44.9930 H   0  0  0  0  0  0  0  0  0  0  0  0
   17.9970   14.8110   45.9200 H   0  0  0  0  0  0  0  0  0  0  0  0
   17.0700   13.1790   44.8410 C   0  0  0  0  0  0  0  0  0  0  0  0
   16.1050   13.4340   45.3240 H   0  0  0  0  0  0  0  0  0  0  0  0
   17.1270   12.0710   44.7830 H   0  0  0  0  0  0  0  0  0  0  0  0
   17.1450   13.7290   43.4270 C   0  0  0  0  0  0  0  0  0  0  0  0
   18.1950   13.5370   43.1040 H   0  0  0  0  0  0  0  0  0  0  0  0
   16.9840   14.8290   43.4670 H   0  0  0  0  0  0  0  0  0  0  0  0
   16.2110   13.1150   42.3810 C   0  0  0  0  0  0  0  0  0  0  0  0
   15.7930   13.9510   41.7710 H   0  0  0  0  0  0  0  0  0  0  0  0
   15.3550   12.6290   42.8950 H   0  0  0  0  0  0  0  0  0  0  0  0
   16.9020   12.1320   41.4230 C   0  0  0  0  0  0  0  0  0  0  0  0
   16.9710   11.1330   41.8940 H   0  0  0  0  0  0  0  0  0  0  0  0
   17.9290   12.4330   41.1400 H   0  0  0  0  0  0  0  0  0  0  0  0
   16.3250   12.0370   40.4780 H   0  0  0  0  0  0  0  0  0  0  0  0
   13.6120   16.7560   55.6930 C   0  0  0  0  0  0  0  0  0  0  0  0
   13.6600   15.8920   54.9900 H   0  0  0  0  0  0  0  0  0  0  0  0
   14.3360   16.5650   56.5220 H   0  0  0  0  0  0  0  0  0  0  0  0
   14.0400   18.0040   54.9120 C   0  0  0  0  0  0  0  0  0  0  0  0
   13.9040   18.9060   55.5520 H   0  0  0  0  0  0  0  0  0  0  0  0
   13.3730   18.1120   54.0290 H   0  0  0  0  0  0  0  0  0  0  0  0
   15.5050   17.9470   54.4460 C   0  0  0  0  0  0  0  0  0  0  0  0
   16.1570   18.0730   55.3410 H   0  0  0  0  0  0  0  0  0  0  0  0
   15.7030   18.8120   53.7750 H   0  0  0  0  0  0  0  0  0  0  0  0
   15.9250   16.6490   53.7310 C   0  0  0  0  0  0  0  0  0  0  0  0
   15.8320   15.7930   54.4330 H   0  0  0  0  0  0  0  0  0  0  0  0
   17.0000   16.7470   53.4570 H   0  0  0  0  0  0  0  0  0  0  0  0
   15.1230   16.3530   52.4570 C   0  0  0  0  0  0  0  0  0  0  0  0
   15.0190   17.3050   51.9010 H   0  0  0  0  0  0  0  0  0  0  0  0
   14.0960   16.0140   52.7110 H   0  0  0  0  0  0  0  0  0  0  0  0
   15.7990   15.3300   51.5280 C   0  0  0  0  0  0  0  0  0  0  0  0
   15.5210   14.3050   51.8530 H   0  0  0  0  0  0  0  0  0  0  0  0
   16.9040   15.4290   51.6190 H   0  0  0  0  0  0  0  0  0  0  0  0
   15.4190   15.4900   50.0460 C   0  0  0  0  0  0  0  0  0  0  0  0
   15.9660   14.7220   49.4540 H   0  0  0  0  0  0  0  0  0  0  0  0
   15.7560   16.4870   49.6950 H   0  0  0  0  0  0  0  0  0  0  0  0
   13.9110   15.3550   49.7970 C   0  0  0  0  0  0  0  0  0  0  0  0
   13.3690   16.0880   50.4380 H   0  0  0  0  0  0  0  0  0  0  0  0
   13.5930   14.3500   50.1380 H   0  0  0  0  0  0  0  0  0  0  0  0
   13.4600   15.5930   48.3420 C   0  0  0  0  0  0  0  0  0  0  0  0
   13.5650   16.6800   48.1230 H   0  0  0  0  0  0  0  0  0  0  0  0
   12.3770   15.3440   48.2740 H   0  0  0  0  0  0  0  0  0  0  0  0
   14.2100   14.8020   47.2510 C   0  0  0  0  0  0  0  0  0  0  0  0
   14.3170   13.7380   47.5410 H   0  0  0  0  0  0  0  0  0  0  0  0
   15.2410   15.2140   47.1570 H   0  0  0  0  0  0  0  0  0  0  0  0
   13.5140   14.8660   45.8730 C   0  0  0  0  0  0  0  0  0  0  0  0
   12.5300   14.3550   45.9190 H   0  0  0  0  0  0  0  0  0  0  0  0
   14.1420   14.3270   45.1310 H   0  0  0  0  0  0  0  0  0  0  0  0
   13.3230   16.3130   45.4020 C   0  0  0  0  0  0  0  0  0  0  0  0
   14.1680   16.8400   45.8800 H   0  0  0  0  0  0  0  0  0  0  0  0
   12.3870   16.7520   45.8060 H   0  0  0  0  0  0  0  0  0  0  0  0
   13.4550   16.5680   43.8930 C   0  0  0  0  0  0  0  0  0  0  0  0
   14.3160   15.9880   43.4920 H   0  0  0  0  0  0  0  0  0  0  0  0
   13.6870   17.6480   43.7410 H   0  0  0  0  0  0  0  0  0  0  0  0
   12.1990   16.2650   43.0890 C   0  0  0  0  0  0  0  0  0  0  0  0
   11.3440   16.8880   43.4310 H   0  0  0  0  0  0  0  0  0  0  0  0
   11.9250   15.2060   43.2220 H   0  0  0  0  0  0  0  0  0  0  0  0
   12.3710   16.4580   42.0080 H   0  0  0  0  0  0  0  0  0  0  0  0
  1  9  1  0  0  0  0
  2  3  1  0  0  0  0
  2  1  1  0  0  0  0
  2  4  1  0  0  0  0
  5  7  1  0  0  0  0
  5  8  1  0  0  0  0
  5  1  1  0  0  0  0
  6  5  1  0  0  0  0
  9 12  1  0  0  0  0
  9 11  1  0  0  0  0
  9 10  1  0  0  0  0
 13  1  1  0  0  0  0
 13 15  1  0  0  0  0
 13 14  1  0  0  0  0
 16 13  1  0  0  0  0
 17  2  1  0  0  0  0
 18 17  1  0  0  0  0
 19 17  1  0  0  0  0
 20 21  2  6  0  0  0
 20 22  1  0  0  0  0
 20 23  1  0  0  0  0
 23 17  1  0  0  0  0
 24 25  1  0  0  0  0
 24 20  1  0  0  0  0
 25 27  1  0  0  0  0
 25 26  1  0  0  0  0
 28 29  1  1  0  0  0
 28 25  1  0  0  0  0
 30 28  1  0  0  0  0
 31 30  1  0  0  0  0
 31 32  2  0  0  0  0
 33 31  1  0  0  0  0
 34 33  1  0  0  0  0
 35 33  1  0  0  0  0
 36 28  1  0  0  0  0
 36 37  1  0  0  0  0
 38 36  1  0  0  0  0
 39 36  1  0  0  0  0
 40 39  1  0  0  0  0
 41 40  2  0  0  0  0
 42 40  1  0  0  0  0
 42 43  1  0  0  0  0
 44 42  1  0  0  0  0
 45 33  1  0  0  0  0
 45 47  1  0  0  0  0
 45 46  1  0  0  0  0
 48 45  1  0  0  0  0
 49 48  1  0  0  0  0
 50 48  1  0  0  0  0
 51 52  1  0  0  0  0
 51 48  1  0  0  0  0
 51 53  1  0  0  0  0
 54 55  1  0  0  0  0
 54 51  1  0  0  0  0
 56 54  1  0  0  0  0
 57 58  1  0  0  0  0
 57 59  1  0  0  0  0
 57 54  1  0  0  0  0
 60 61  1  0  0  0  0
 60 57  1  0  0  0  0
 62 60  1  0  0  0  0
 63 64  1  0  0  0  0
 63 60  1  0  0  0  0
 65 63  2  0  0  0  0
 66 65  1  0  0  0  0
 67 65  1  0  0  0  0
 67 69  1  0  0  0  0
 68 67  1  0  0  0  0
 70 73  1  0  0  0  0
 70 67  1  0  0  0  0
 71 70  1  0  0  0  0
 72 70  1  0  0  0  0
 73 75  1  0  0  0  0
 73 74  1  0  0  0  0
 76 78  1  0  0  0  0
 76 73  1  0  0  0  0
 77 76  1  0  0  0  0
 79 80  1  0  0  0  0
 79 76  1  0  0  0  0
 81 79  1  0  0  0  0
 82 84  1  0  0  0  0
 82 79  1  0  0  0  0
 83 82  1  0  0  0  0
 85 87  1  0  0  0  0
 85 82  1  0  0  0  0
 86 85  1  0  0  0  0
 88 89  1  0  0  0  0
 88 85  1  0  0  0  0
 90 88  1  0  0  0  0
 91 88  1  0  0  0  0
 92 42  1  0  0  0  0
 92 94  1  0  0  0  0
 93 92  1  0  0  0  0
 95 96  1  0  0  0  0
 95 92  1  0  0  0  0
 97 95  1  0  0  0  0
 98 95  1  0  0  0  0
 98 99  1  0  0  0  0
100 98  1  0  0  0  0
101102  1  0  0  0  0
101 98  1  0  0  0  0
103101  1  0  0  0  0
104106  1  0  0  0  0
104101  1  0  0  0  0
105104  1  0  0  0  0
107109  1  0  0  0  0
107108  1  0  0  0  0
107104  1  0  0  0  0
110107  1  0  0  0  0
111110  1  0  0  0  0
112110  1  0  0  0  0
113110  1  0  0  0  0
113115  1  0  0  0  0
113114  1  0  0  0  0
116113  1  0  0  0  0
117116  1  0  0  0  0
118116  1  0  0  0  0
119120  1  0  0  0  0
119116  1  0  0  0  0
121119  1  0  0  0  0
122123  1  0  0  0  0
122119  1  0  0  0  0
124122  1  0  0  0  0
125127  1  0  0  0  0
125122  1  0  0  0  0
125126  1  0  0  0  0
128125  1  0  0  0  0
129128  1  0  0  0  0
130128  1  0  0  0  0
131133  1  0  0  0  0
131132  1  0  0  0  0
131128  1  0  0  0  0
134131  1  0  0  0  0
M  CHG  2   1   1  20  -1
M  END
$$$$
