ligand
 OpenBabel06142604293D

 29 31  0  0  1  0  0  0  0  0999 V2000
   24.6210   25.0660   40.0750 N   0  3  0  0  0  0  0  0  0  0  0  0
   24.9110   25.0820   38.6440 C   0  0  1  0  0  0  0  0  0  0  0  0
   26.3820   24.6820   38.4210 C   0  0  0  0  0  0  0  0  0  0  0  0
   26.6700   24.6570   36.9080 C   0  0  1  0  0  0  0  0  0  0  0  0
   23.9740   24.0660   37.9670 C   0  0  0  0  0  0  0  0  0  0  0  0
   24.2620   24.0380   36.4560 C   0  0  2  0  0  0  0  0  0  0  0  0
   25.7300   23.6470   36.2290 C   0  0  0  0  0  0  0  0  0  0  0  0
   24.0160   25.4390   35.8660 C   0  0  0  0  0  0  0  0  0  0  0  0
   24.6610   26.4890   38.0720 C   0  0  0  0  0  0  0  0  0  0  0  0
   24.9400   26.4660   36.5560 C   0  0  1  0  0  0  0  0  0  0  0  0
   26.4060   26.0550   36.3220 C   0  0  0  0  0  0  0  0  0  0  0  0
   25.3550   25.5990   40.5760 H   0  0  0  0  0  0  0  0  0  0  0  0
   24.6180   24.0730   40.3730 H   0  0  0  0  0  0  0  0  0  0  0  0
   23.6790   25.4760   40.2120 H   0  0  0  0  0  0  0  0  0  0  0  0
   26.5910   23.6670   38.8230 H   0  0  0  0  0  0  0  0  0  0  0  0
   27.0800   25.4020   38.8990 H   0  0  0  0  0  0  0  0  0  0  0  0
   27.7250   24.3630   36.7120 H   0  0  0  0  0  0  0  0  0  0  0  0
   22.9060   24.3370   38.1130 H   0  0  0  0  0  0  0  0  0  0  0  0
   24.1430   23.0430   38.3660 H   0  0  0  0  0  0  0  0  0  0  0  0
   23.6160   23.2900   35.9500 H   0  0  0  0  0  0  0  0  0  0  0  0
   25.9010   22.6270   36.6240 H   0  0  0  0  0  0  0  0  0  0  0  0
   25.9440   23.6220   35.1390 H   0  0  0  0  0  0  0  0  0  0  0  0
   22.9490   25.7220   35.9770 H   0  0  0  0  0  0  0  0  0  0  0  0
   24.2500   25.4240   34.7790 H   0  0  0  0  0  0  0  0  0  0  0  0
   25.3400   27.2340   38.5430 H   0  0  0  0  0  0  0  0  0  0  0  0
   23.6080   26.8060   38.2300 H   0  0  0  0  0  0  0  0  0  0  0  0
   24.7810   27.4780   36.1270 H   0  0  0  0  0  0  0  0  0  0  0  0
   26.6090   26.0430   35.2290 H   0  0  0  0  0  0  0  0  0  0  0  0
   27.0850   26.7960   36.7870 H   0  0  0  0  0  0  0  0  0  0  0  0
  1 14  1  0  0  0  0
  1 12  1  0  0  0  0
  1 13  1  0  0  0  0
  2  1  1  1  0  0  0
  2  9  1  0  0  0  0
  2  3  1  0  0  0  0
  2  5  1  0  0  0  0
  3 15  1  0  0  0  0
  3 16  1  0  0  0  0
  3  4  1  0  0  0  0
  4 17  1  6  0  0  0
  4  7  1  0  0  0  0
  4 11  1  0  0  0  0
  5 19  1  0  0  0  0
  5 18  1  0  0  0  0
  5  6  1  0  0  0  0
  6 20  1  6  0  0  0
  6  7  1  0  0  0  0
  6  8  1  0  0  0  0
  7 21  1  0  0  0  0
  7 22  1  0  0  0  0
  8 23  1  0  0  0  0
  8 10  1  0  0  0  0
  8 24  1  0  0  0  0
  9 26  1  0  0  0  0
  9 25  1  0  0  0  0
  9 10  1  0  0  0  0
 10 11  1  0  0  0  0
 10 27  1  6  0  0  0
 11 29  1  0  0  0  0
 11 28  1  0  0  0  0
M  CHG  1   1   1
M  END
$$$$
